# CHD: Time-Variant Specified-Head package file created on 27/01/2021 by ModelMuse version 4.3.0.0.
BEGIN OPTIONS
    AUXILIARY IFACE
    BOUNDNAMES
    PRINT_INPUT
    SAVE_FLOWS
END OPTIONS

BEGIN DIMENSIONS
  MAXBOUND     1
END DIMENSIONS

BEGIN PERIOD      1
     1    15     1  0.000000000000E+000      0 'Object1'  # Data Set 6: Layer Row Column Shead IFACE boundname
END PERIOD 

