# TDIS file created on 27/01/2021 by ModelMuse version 4.3.0.0.

BEGIN OPTIONS
  TIME_UNITS seconds
END OPTIONS

BEGIN DIMENSIONS
  NPER     1
END DIMENSIONS

BEGIN PERIODDATA
    8.640000000000E+004      1  1.000000000000E+000  # perlen nstp tsmult, Stress period      1
END PERIODDATA
