# Discretization File created on 27/01/2021 by ModelMuse version 4.3.0.0.
# Upper left corner: (0, 0)
# Lower left corner: (0, -75000)
# Upper right corner: (75000, 0)
# Lower right corner: (75000, -75000)
# Grid angle (in degrees counterclockwise): 0
# Number of active cells = 1125.
BEGIN OPTIONS
  LENGTH_UNITS METERS
  XORIGIN  0.000000000000E+000 
  YORIGIN -7.500000000000E+004 
  ANGROT  0.000000000000E+000 
END OPTIONS

BEGIN DIMENSIONS
  NLAY      5
  NROW     15
  NCOL     15
END DIMENSIONS


BEGIN GRIDDATA
  DELR IPRN    12
    CONSTANT   5.000000000000E+003  # DELR

  DELC IPRN    12
    CONSTANT   5.000000000000E+003  # DELC

  TOP LAYERED IPRN    12
    CONSTANT   2.000000000000E+002  # TOP

  BOTM LAYERED IPRN    12
    CONSTANT  -1.500000000000E+002  # BOTM, Upper_Aquifer

    CONSTANT  -2.000000000000E+002  # BOTM, Upper_Aquitard

    CONSTANT  -3.000000000000E+002  # BOTM, Middle_Aquifer

    CONSTANT  -3.500000000000E+002  # BOTM, Lower_Aquitard

    CONSTANT  -4.500000000000E+002  # BOTM, Lower_Aquifer

  IDOMAIN LAYERED IPRN     5
    CONSTANT      1 # IDOMAIN 1
    CONSTANT      1 # IDOMAIN 2
    CONSTANT      1 # IDOMAIN 3
    CONSTANT      1 # IDOMAIN 4
    CONSTANT      1 # IDOMAIN 5
END GRIDDATA

