# Output Control file created on 27/01/2021 by ModelMuse version 4.3.0.0.
BEGIN OPTIONS
  BUDGET FILEOUT 'example_problem.cbc'
  HEAD FILEOUT 'example_problem.bhd'
END OPTIONS

BEGIN PERIOD      1
  SAVE HEAD ALL
  PRINT BUDGET ALL
  SAVE BUDGET ALL
END PERIOD 

