BEGIN TIMING
  TDIS6 'C:\Users\burse\Documents\Projects\modflow-fortran\modflow_fortran\examples\example_problem.tdis'
END TIMING

BEGIN MODELS
  GWF6 'C:\Users\burse\Documents\Projects\modflow-fortran\modflow_fortran\examples\example_problem.nam' 'MODFLOW'
END MODELS

BEGIN EXCHANGES
END EXCHANGES

BEGIN SOLUTIONGROUP     1
  MXITER     1
  IMS6 'C:\Users\burse\Documents\Projects\modflow-fortran\modflow_fortran\examples\example_problem.ims' 'MODFLOW' 
END SOLUTIONGROUP

